{
  "doc_id": "45867",
  "text": "Using the hourly surface ozone concentrations from GEOS-Chem, we calculate ozone exposure metrics over the final 92 days (roughly 3 months) of a growing season ending in 2010 as done by [CITATION_1] . This growing season is determined by the 10 University of Wisconsin Center for Sustainability and the Global Environment (UW SAGE) global crop calendar containing the planting and harvest dates by crop species and variety (maize, spring wheat, winter wheat, and rice) [CITATION_2] .",
  "correct_citation": {
    "[CITATION_1]": "86811073",
    "[CITATION_2]": "29965844"
  },
  "citation_spans": [
    {
      "citation_id": "[CITATION_1]",
      "span_text": "Using the hourly surface ozone concentrations from GEOS-Chem, we calculate ozone exposure metrics over the final 92 days (roughly 3 months) of a growing season ending in 2010 as done by [CITATION_1] ."
    },
    {
      "citation_id": "[CITATION_2]",
      "span_text": "This growing season is determined by the 10 University of Wisconsin Center for Sustainability and the Global Environment (UW SAGE) global crop calendar containing the planting and harvest dates by crop species and variety (maize, spring wheat, winter wheat, and rice) [CITATION_2] ."
    }
  ],
  "bib_entries": {
    "86811073": {
      "title": "Threat to future global food security from climate change and ozone air pollution",
      "abstract": "This study shows that climate change has the potential to substantially increase undernourishment rates and threaten food security in developing countries through crop damage, but that ozone regulation can significantly offset climate impacts, depending on the scenario. The findings should help policymakers devise optimal strategies for food production under global climate change."
    },
    "29965844": {
      "title": "Crop planting dates: an analysis of global patterns",
      "abstract": "Aim To assemble a data set of global crop planting and harvesting dates for 19 major crops, explore spatial relationships between planting date and climate for two of them, and compare our analysis with a review of the literature on factors that drive decisions on planting dates. ::: ::: Location Global. ::: ::: Methods We digitized and georeferenced existing data on crop planting and harvesting dates from six sources. We then examined relationships between planting dates and temperature, precipitation and potential evapotranspiration using 30-year average climatologies from the Climatic Research Unit, University of East Anglia (CRU CL 2.0). ::: ::: Results We present global planting date patterns for maize, spring wheat and winter wheat (our full, publicly available data set contains planting and harvesting dates for 19 major crops). Maize planting in the northern mid-latitudes generally occurs in April and May. Daily average air temperatures are usually c. 12–17 °C at the time of maize planting in these regions, although soil moisture often determines planting date more directly than does temperature. Maize planting dates vary more widely in tropical regions. Spring wheat is usually planted at cooler temperatures than maize, between c. 8 and 14 °C in temperate regions. Winter wheat is generally planted in September and October in the northern mid-latitudes. ::: ::: Main conclusions In temperate regions, spatial patterns of maize and spring wheat planting dates can be predicted reasonably well by assuming a fixed temperature at planting. However, planting dates in lower latitudes and planting dates of winter wheat are more difficult to predict from climate alone. In part this is because planting dates may be chosen to ensure a favourable climate during a critical growth stage, such as flowering, rather than to ensure an optimal climate early in the crop's growth. The lack of predictability is also due to the pervasive influence of technological and socio-economic factors on planting dates."
    }
  },
  "generator": "ollama:llama3.1:8b"
}
