{
  "doc_id": "58983",
  "text": "CDM has been adopted in this work which assumes a linear elastic orthotropic response up to the point of damage initiation. Modified Hashin's damage initiation criteria must be satisfied for damage to initiate as this model is adopted. These damage criteria are similar to the ones proposed by [CITATION_1] for multi-axially loaded composites. The initial elastic constants of the undamaged material are the elastic moduli E 1 , E 2 and E 3 ; shear moduli G 12 , G 23 and G 31 and Poisson's coefficients υ 12 , υ 23 and υ 31 , where 1, 2 and 3 denote local axes of the material in the direct in-plane fill (warp), transverse in-plane (weft) and out-of-plane directions, respectively. The constitutive relation for undamaged composite ply is therefore",
  "correct_citation": {
    "[CITATION_1]": "135642043"
  },
  "citation_spans": [
    {
      "citation_id": "[CITATION_1]",
      "span_text": "These damage criteria are similar to the ones proposed by [CITATION_1] for multi-axially loaded composites."
    }
  ],
  "bib_entries": {
    "135642043": {
      "title": "Progressive damage and delamination in plain weave S-2 glass/ SC-15 composites under quasi-static punch-shear loading",
      "abstract": "Quasi-static punch-shear tests are carried out on plain weave (PW) S-2 glass/SC-15 epoxy composite laminates with a right circular cylinder punch to identify the sequence and extent of damage and the corresponding displacements at which they occur for a wide range of laminate thicknesses. Two different support spans of 25.4 mm (1 in) and 101.6 mm (4 in) diameter with different layers (0.6 mm ply thickness) of composite laminates are tested under quasi-static loading to identify compression-shear and tension-shear dominated modes of damage. Numerical punch shear experiments are conducted using LS-DYNA 970. The numerical modeling is carried out using a newly developed composite damage model, namely MAT 162, which has been incorporated into LS-DYNA. MAT 162 uses damage mechanics principle for progressive damage and material degradation. Input data required in MAT 162 have been calibrated to match the experimental results of 22-layer composite plate of both spans (25.4 mm and 101.6 mm). The calibrated material properties have been used to simulate other thicknesses, and the simulated results show good agreement with experiment results. It has been found that the dominant damage mechanisms are delamination and fiber breakage due to shear and tension.Copyright © 2005 by ASME"
    }
  },
  "generator": "logic:full-sentence-heuristic-v1-strict"
}
