{
  "doc_id": "40946",
  "text": "Atmos. Chem. Phys. Discuss., doi:10.5194/acp-2016 Discuss., doi:10.5194/acp- -395, 2016 Manuscript under review for journal Atmos. Chem. Phys. [CITATION_1] . Other published data for samples with air originating from the remote Atlantic Ocean showed a !!\" ! !! ! !\"\" between 0.9 and 4.5 µg m -3 [CITATION_2] , consistent with our observations. Higher observed",
  "correct_citation": {
    "[CITATION_1]": "128821336",
    "[CITATION_2]": "129702227"
  },
  "citation_spans": [
    {
      "citation_id": "[CITATION_1]",
      "span_text": "Phys.  ."
    },
    {
      "citation_id": "[CITATION_2]",
      "span_text": "Other published data for samples with air originating from the remote Atlantic Ocean showed a !!\" ! !! ! !\"\" between 0.9 and 4.5 µg m -3  , consistent with our observations."
    }
  ],
  "bib_entries": {
    "129702227": {
      "title": "Isotopic constraints on the formation pathways of sulfate aerosol in the marine boundary layer of the subtropical northeast Atlantic Ocean",
      "abstract": "[1] We use observations of the oxygen-17 excess of non-sea salt sulfate aerosol (Δ17O(nssSO42−)) collected from two ship cruises in the subtropical northeast Atlantic Ocean in August 2006 and February 2007 to quantify the formation pathways of sulfate in the marine boundary layer (MBL). The large observed Δ17O(nssSO42−) values up to 7.3‰ suggest a large role for sulfate formation via S(IV) oxidation by O3 in the MBL. Model simulations with the GEOS-Chem global chemical transport model suggest that in-cloud oxidation of S(IV) by O3 represents over one-third (36–37%) of total in-cloud sulfate production on average. A model parameterization accounting for the impacts of sea salt aerosol on cloud droplet chemical heterogeneity and resulting impacts on in-cloud sulfate production rates improves the model's agreement with the Δ17O(nssSO42−) observations in the MBL. Including this parameterization in the model had little impact on the global sulfur budget due to the dominant role of continental anthropogenic emissions for global sulfur emissions in the present-day. The large observed Δ17O(nssSO42−) argue against a significant role of hypobromous (HOBr) or hypochlorous (HOCl) acid for sulfate formation in the remote MBL of the wintertime subtropical northeast Atlantic, but S(IV) oxidation by HOBr/HOCl on the order of 20% of total sulfate abundance is consistent with the summertime Δ17O(nssSO42−) observations in the more polluted coastal region of the Iberian Peninsula. Additional measurements of Δ17O(nssSO42−) are needed to quantify sulfate production mechanisms in the MBL over larger spatial and temporal scales."
    },
    "128821336": {
      "title": "Aerosol non-sea-salt sulphate in the remote marine boundary layer under clear-sky and normal cloudiness conditions: Ocean-derived biogenic alkalinity enhances seasalt sulfate production by ozone oxidation",
      "abstract": "[1] Observations of remote marine boundary layer (RMBL) non-sea-salt sulfate (NSS) aerosols indicate a substantial NSS fraction may be found in coarse (supermicron diameter) sea-salt aerosols. Aqueous phase mechanisms account for a portion of this coarse aerosol NSS. Aerosol samples were collected at Baring Head, New Zealand, during clear-sky and normal cloudiness conditions to assess the contribution that the O3 oxidation mechanism may make to coarse NSS. Southern Ocean derived clear-sky coarse aerosols had >8 nmol NSS m−3; the normal cloudiness coarse aerosols contained 200 and 35–40 times, respectively, more alkalinity than did bulk seawater (equivalents basis). Consequently, aqueous phase, O3 oxidation in sea-salt aerosols was markedly enhanced and may account for essentially all observed coarse aerosol NSS. Satellite data indicate the Southern Ocean upwind of Baring Head contains ∼3 times the annual primary productivity (with associated biogenic Ca enhancement) of open ocean surface waters. The large and variable upwind biogenic Ca source plus the high wind speeds encountered at Baring Head make this site atypical of many RMBL regions. More typical RMBL conditions, found during western Pacific Ocean shipboard measurements, indicate that ∼1 to ∼2.5 times additional alkalinity (beyond that from bulk seawater) is likely to be found in sea-salt aerosols due to seawater biogenic sources. Coarse aerosols, laden with NSS, experience large dry deposition rates which results in rapid recycling of ocean-derived sulfur. This process has been overlooked or understated in RMBL sulfur budget analyses and models. One major consequence is that new particle production from biogenically derived oceanic sulfur is severely limited in the RMBL since ubiquitous O3 oxidation in sea-salt aerosols is energetically favored over homogeneous nucleation."
    }
  },
  "generator": "fallback_v4"
}