{
  "style": "IEEE",
  "texts": [
    "Table IV presents the HBM2 parameters.The system-level evaluation considers both computation and communication for reporting latency and energy metrics.",
    "The latency of each core is computed using cycle-accurate simulators.",
    "SCALE-Sim is utilized for the systolic array cores and a modified NeuroSim is employed to obtain the latency of all on-chip buffers, and peripheral circuits in ReRAM cores [47] [32].",
    "Afterward, we use the cycle-accurate BookSim2 simulator to implement the NoC to connect the cores and determine NoC latency and power [48].",
    "The inputs to the BookSim2 are the connectivity between routers, the inter-core traffic, and the technology file."
  ],
  "correct_citations": [
    "SCALE-Sim is utilized for the systolic array cores and a modified NeuroSim is employed to obtain the latency of all on-chip buffers, and peripheral circuits in ReRAM cores [47] [32].",
    "Afterward, we use the cycle-accurate BookSim2 simulator to implement the NoC to connect the cores and determine NoC latency and power [48]."
  ]
}