{
  "doc_id": "41226",
  "text": "HOBr concentration of about 2 ppt, with a lower detection limit of about 0.2 ppt (Le Breton et al., 2015) . This is still much higher than our calculated daily-averaged [HOX] g , but it is likely that HOBr concentration could vary significantly with sampling locations and sampling time [CITATION_1] . Field campaigns of HOX measurements are necessary to assess our calculated HOX concentration over our sampling regions. concentrations, halving cloud amount or using a lower limit for cloud pH in the model. Our calculations suggest that the discrepancy can be explained with a fractional contribution of sulfate abundance formed by HOX ranging from 33~50% over the entire area sampled, with the highest fraction (58~84%) in the Southern Ocean MBL. A daily-averaged gas-phase HOX concentration of ! 0.1 ppt or higher would be sufficient to explain the observed # 17 O(!\"\"!\" ! !! ) of our samples. This study provides the first observational constraint on the role of hypohalous acids in sulfate aerosol formation in the MBL.",
  "correct_citation": {
    "[CITATION_1]": "12534111"
  },
  "citation_spans": [
    {
      "citation_id": "[CITATION_1]",
      "span_text": "This is still much higher than our calculated daily-averaged [HOX] g , but it is likely that HOBr concentration could vary significantly with sampling locations and sampling time  ."
    }
  ],
  "bib_entries": {
    "12534111": {
      "title": "Modeling the observed tropospheric BrO background: Importance of multiphase chemistry and implications for ozone, OH, and mercury",
      "abstract": "Aircraft and satellite observations indicate the presence of ppt (pptpmol/mol) levels of BrO in the free troposphere with important implications for the tropospheric budgets of ozone, OH, and mercury. We can reproduce these observations with the GEOS-Chem global tropospheric chemistry model by including a broader consideration of multiphase halogen (Br-Cl) chemistry than has been done in the past. Important reactions for regenerating BrO from its nonradical reservoirs include HOBr+Br-/Cl- in both aerosols and clouds, and oxidation of Br- by ClNO3 and ozone. Most tropospheric BrO in the model is in the free troposphere, consistent with observations and originates mainly from the photolysis and oxidation of ocean-emitted CHBr3. Stratospheric input is also important in the upper troposphere. Including production of gas phase inorganic bromine from debromination of acidified sea salt aerosol increases free tropospheric Br-y by about 30%. We find HOBr to be the dominant gas-phase reservoir of inorganic bromine. Halogen (Br-Cl) radical chemistry as implemented here in GEOS-Chem drives 14% and 11% decreases in the global burdens of tropospheric ozone and OH, respectively, a 16% increase in the atmospheric lifetime of methane, and an atmospheric lifetime of 6months for elemental mercury. The dominant mechanism for the Br-Cl driven tropospheric ozone decrease is oxidation of NOx by formation and hydrolysis of BrNO3 and ClNO3."
    }
  },
  "generator": "fallback_v4"
}