{
  "doc_id": "41310",
  "text": "Hitherto, there is no observational constraint on HOX concentrations in the mid-and high-latitude remote MBL. Models have suggested a large range of HOX concentration on the order of 0.1 ppt [CITATION_1] to 10 ppt [CITATION_2] over these regions. Here we quantify the daily-averaged HOX concentration indirectly from observed and modeled # 17 O of sulfate. First, we calculate the fractional contribution of the HOX oxidation pathway (f obs,HOX ) to sulfate abundance in our samples. Then, we calculate the HOX concentration needed to achieve this f obs,HOX .",
  "correct_citation": {
    "[CITATION_1]": "12534111",
    "[CITATION_2]": "4335618"
  },
  "citation_spans": [
    {
      "citation_id": "[CITATION_1]",
      "span_text": "Hitherto, there is no observational constraint on HOX concentrations in the mid-and high-latitude remote MBL. Models have suggested a large range of HOX concentration on the order of 0.1 ppt  to 10 ppt  over these regions."
    },
    {
      "citation_id": "[CITATION_2]",
      "span_text": "Hitherto, there is no observational constraint on HOX concentrations in the mid-and high-latitude remote MBL. Models have suggested a large range of HOX concentration on the order of 0.1 ppt  to 10 ppt  over these regions."
    }
  ],
  "bib_entries": {
    "12534111": {
      "title": "Modeling the observed tropospheric BrO background: Importance of multiphase chemistry and implications for ozone, OH, and mercury",
      "abstract": "Aircraft and satellite observations indicate the presence of ppt (pptpmol/mol) levels of BrO in the free troposphere with important implications for the tropospheric budgets of ozone, OH, and mercury. We can reproduce these observations with the GEOS-Chem global tropospheric chemistry model by including a broader consideration of multiphase halogen (Br-Cl) chemistry than has been done in the past. Important reactions for regenerating BrO from its nonradical reservoirs include HOBr+Br-/Cl- in both aerosols and clouds, and oxidation of Br- by ClNO3 and ozone. Most tropospheric BrO in the model is in the free troposphere, consistent with observations and originates mainly from the photolysis and oxidation of ocean-emitted CHBr3. Stratospheric input is also important in the upper troposphere. Including production of gas phase inorganic bromine from debromination of acidified sea salt aerosol increases free tropospheric Br-y by about 30%. We find HOBr to be the dominant gas-phase reservoir of inorganic bromine. Halogen (Br-Cl) radical chemistry as implemented here in GEOS-Chem drives 14% and 11% decreases in the global burdens of tropospheric ozone and OH, respectively, a 16% increase in the atmospheric lifetime of methane, and an atmospheric lifetime of 6months for elemental mercury. The dominant mechanism for the Br-Cl driven tropospheric ozone decrease is oxidation of NOx by formation and hydrolysis of BrNO3 and ClNO3."
    },
    "4335618": {
      "title": "A mechanism for halogen release from sea-salt aerosol in the remote marine boundary layer",
      "abstract": "RECENT measurements of inorganic chlorine gases1 and hydrocarbons2 indicate the presence of reactive chlorine in the remote marine boundary layer; reactions involving chlorine and bromine can affect the concentrations of ozone, hydrocarbons and cloud condensation nuclei. The known formation mechanisms of reactive halogens require significant concentrations of nitrogen oxides3–5, which are not present in the unpolluted air of the remote marine boundary layer6. Here we propose an autocatalytic mechanism for halogen release from sea-salt aerosol: gaseous HOBr is scavenged by the aerosol and converted to only slightly soluble BrCl and Br2, which are released into the gas phase. Depending on the sea-salt concentration and given a boundary layer that is stable for a few days, gaseous HOCl and HOBr may reach molar mixing ratios of up to 35 pmol mol−1. We calculate that HOBr and HOCl are responsible for 20% and 40%, respectively, of the sulphur (IV) oxidation7,8 that occurs in the aerosol phase. The additional S(IV) oxidation reduces the formation of cloud-condensation nuclei, and hence the feedback between greenhouse warming, oceanic DMS emission and cloud albedo. We also calculate significant bromine-catalysed ozone loss."
    }
  },
  "generator": "fallback_v4"
}