{
  "doc_id": "7486",
  "text": "concentration-response coefficients, population and baseline incidence or prevalence data, we calculated the number of excess deaths and illnesses due to BC exposure nationwide. In estimating the 95% confidence interval (CI)of the national estimates, the only source of uncertainty that is taken into account is the uncertainty in β values. The uncertainty analysis was conducted in BenMAP using Monte Carlo simulation with a sample size of 5000. We explored the effects of uncertainties in the BC risk estimate via sensitivity analyses, as noted above. Other sources of uncertainty are discussed qualitatively. We also estimated the excess number of deaths and percent of baseline mortality by State and county and mapped the spatial variations in mortality and in percent of baseline mortality using the mean value of the risk estimate (β) for all-cause mortality from [CITATION_1] Fig. 1(a) shows the simulated annual average BC concentrations from anthropogenic sources in 2010. The maximum simulated BC value in the continental US is 3.0 µg/m 3 , the mean BC value is 0.3 µg/m 3 , and the 95th percentile value is about 1.0 µg/m 3 . In general, the highest BC values are in the northeastern United States, with some 'hotspots' in California. Our evaluation of the modeled BC concentrations compared to measurements from IMPROVE indicates that the annual average BC simulations have a normalized mean bias of 0.10%, a standard error of 0.39 µg/m 3 . The slope of a reduced major axis fit through the origin is 1.10 ( Fig. 2(a) ). The spatial plot of the model error (GEOS-Chem -IMPROVE) in Fig. 2(b) shows the model to overestimate BC concentrations in the Northeast and California. This is likely owing to the use of BC emission factors that may not accurately reflect decreasing trends in BC from particulate standards for diesels [CITATION_2] .",
  "correct_citation": {
    "[CITATION_1]": "22529187",
    "[CITATION_2]": "54609053"
  },
  "citation_spans": [
    {
      "citation_id": "[CITATION_1]",
      "span_text": "We also estimated the excess number of deaths and percent of baseline mortality by State and county and mapped the spatial variations in mortality and in percent of baseline mortality using the mean value of the risk estimate (β) for all-cause mortality from  Fig. 1(a) shows the simulated annual average BC concentrations from anthropogenic sources in 2010."
    },
    {
      "citation_id": "[CITATION_2]",
      "span_text": "This is likely owing to the use of BC emission factors that may not accurately reflect decreasing trends in BC from particulate standards for diesels  ."
    }
  ],
  "bib_entries": {
    "54609053": {
      "title": "Decreases in elemental carbon and fine particle mass in the United States",
      "abstract": "Abstract. Observations at national parks and other remote sites show that average elemental carbon and fine particle mass concentrations in the United States both decreased by over 25 % between 1990 and 2004. Percentage decreases in elemental carbon were much larger in winter than in summer. These data suggest that emissions controls have been effective in reducing particulate concentrations not only in polluted areas but also across the United States. Despite the reduction in elemental carbon, the simultaneous decrease in non-absorbing particles implies that the overall radiative forcing from these changes was toward warming. The use of a 2005 instead of 1990 as a baseline for climate-relevant emissions from the United States would imply a significantly lower baseline for aerosol emissions. The use of older data will overestimate the possibility for future reductions in warming due to black carbon controls."
    },
    "22529187": {
      "title": "Extended Follow-up and Spatial Analysis of the American Cancer Society Study Linking Particulate Air Pollution and Mortality",
      "abstract": "We conducted an extended follow-up and spatial analysis of the American Cancer Society (ACS) Cancer Prevention Study II (CPS-II) cohort in order to further examine associations between long-term exposure to particulate air pollution and mortality in large U.S. cities. The current study sought to clarify outstanding scientific issues that arose from our earlier HEI-sponsored Reanalysis of the original ACS study data (the Particle Epidemiology Reanalysis Project). Specifically, we examined (1) how ecologic covariates at the community and neighborhood levels might confound and modify the air pollution-mortality association; (2) how spatial autocorrelation and multiple levels of data (e.g., individual and neighborhood) can be taken into account within the random effects Cox model; (3) how using land-use regression to refine measurements of air pollution exposure to the within-city (or intra-urban) scale might affect the size and significance of health effects in the Los Angeles and New York City regions; and (4) what exposure time windows may be most critical to the air pollution-mortality association. The 18 years of follow-up (extended from 7 years in the original study [Pope et al. 1995]) included vital status data for the CPS-II cohort (approximately 1.2 million participants) with multiple cause-of-death codes through December 31, 2000 and more recent exposure data from air pollution monitoring sites for the metropolitan areas. In the Nationwide Analysis, the influence of ecologic covariate data (such as education attainment, housing characteristics, and level of income; data obtained from the 1980 U.S. Census; see Ecologic Covariates sidebar on page 14) on the air pollution-mortality association were examined at the Zip Code area (ZCA) scale, the metropolitan statistical area (MSA) scale, and by the difference between each ZCA value and the MSA value (DIFF). In contrast to previous analyses that did not directly include ecologic covariates at the ZCA scale, risk estimates increased when ecologic covariates were included at all scales. The ecologic covariates exerted their greatest effect on mortality from ischemic heart disease (IHD), which was also the health outcome most strongly related with exposure to PM2.5 (particles 2.5 microm or smaller in aerodynamic diameter), sulfate (SO4(2-)), and sulfur dioxide (SO2), and the only outcome significantly associated with exposure to nitrogen dioxide (NO2). When ecologic covariates were simultaneously included at both the MSA and DIFF levels, the hazard ratio (HR) for mortality from IHD associated with PM2.5 exposure (average concentration for 1999-2000) increased by 7.5% and that associated with SO4(2-) exposure (average concentration for 1990) increased by 12.8%. The two covariates found to exert the greatest confounding influence on the PM2.5-mortality association were the percentage of the population with a grade 12 education and the median household income. Also in the Nationwide Analysis, complex spatial patterns in the CPS-II data were explored with an extended random effects Cox model (see Glossary of Statistical Terms at end of report) that is capable of clustering up to two geographic levels of data. Using this model tended to increase the HR estimate for exposure to air pollution and also to inflate the uncertainty in the estimates. Including ecologic covariates decreased the variance of the results at both the MSA and ZCA scales; the largest decrease was in residual variation based on models in which the MSA and DIFF levels of data were included together, which suggests that partitioning the ecologic covariates into between-MSA and within-MSA values more completely captures the sources of variation in the relationship between air pollution, ecologic covariates, and mortality. Intra-Urban Analyses were conducted for the New York City and Los Angeles regions. The results of the Los Angeles spatial analysis, where we found high exposure contrasts within the Los Angeles region, showed that air pollution-mortality risks were nearly 3 times greater than those reported from earlier analyses. This suggests that chronic health effects associated with intra-urban gradients in exposure to PM2.5 may be even larger between ZCAs within an MSA than the associations between MSAs that have been previously reported. However, in the New York City spatial analysis, where we found very little exposure contrast between ZCAs within the New York region, mortality from all causes, cardiopulmonary disease (CPD), and lung cancer was not elevated. A positive association was seen for PM2.5 exposure and IHD, which provides evidence of a specific association with a cause of death that has high biologic plausibility. These results were robust when analyses controlled (1) the 44 individual-level covariates (from the ACS enrollment questionnaire in 1982; see 44 Individual-Level Covariates sidebar on page 22) and (2) spatial clustering using the random effects Cox model. Effects were mildly lower when unemployment at the ZCA scale was included. To examine whether there is a critical exposure time window that is primarily responsible for the increased mortality associated with ambient air pollution, we constructed individual time-dependent exposure profiles for particulate and gaseous air pollutants (PM2.5 and SO2) for a subset of the ACS CPS-II participants for whom residence histories were available. The relevance of the three exposure time windows we considered was gauged using the magnitude of the relative risk (HR) of mortality as well as the Akaike information criterion (AIC), which measures the goodness of fit of the model to the data. For PM2.5, no one exposure time window stood out as demonstrating the greatest HR; nor was there any clear pattern of a trend in HR going from recent to more distant windows or vice versa. Differences in AIC values among the three exposure time windows were also small. The HRs for mortality associated with exposure to SO2 were highest in the most recent time window (1 to 5 years), although none of these HRs were significantly elevated. Identifying critical exposure time windows remains a challenge that warrants further work with other relevant data sets. This study provides additional support toward developing cost-effective air quality management policies and strategies. The epidemiologic results reported here are consistent with those from other population-based studies, which collectively have strongly supported the hypothesis that long-term exposure to PM2.5 increases mortality in the general population. Future research using the extended Cox-Poisson random effects methods, advanced geostatistical modeling techniques, and newer exposure assessment techniques will provide additional insight."
    }
  },
  "generator": "fallback_v4"
}