{
  "text": "To simulate the annual average BC concentrations across the continental US., we use GEOS-Chem ) (www.geos-chem.org), a global 3-D model of atmospheric composition driven by assimilated meteorological observations from the Goddard Earth Observing System (GEOS) of the National Aeronautics and Space Administration (NASA) Global Modeling Assimilation Office. Global simulations are performed at the 4\u00b0 latitude \u00d7 5\u00b0 longitude degree resolution, with a six month spin-up beginning in July 2009, through the end of 2010. Simulated 3-hourly concentrations from this global calculation are used as the boundary conditions to drive a higher resolution nested simulation over North America at the 0.5\u00b0 latitude by 0.667\u00b0 longitude resolution [CITATION_1] [CITATION_2] . We then convert the model results to the national 12 \u00d7 12 km 2 grid using a two-step process. GEOS-Chem binary punch output is first converted to Climate Forecasting compliant NetCDF with PseudoNetCDF (pseudonetcdf.googlecode.com), and then regridded using a first-order conservative method as implemented in the Climate Data Operators (code.zmaw.de/projects/ cdo). The 12 \u00d7 12 km 2 resolution is required by the standard BenMAP configuration to evaluate gridded air quality model output.",
  "correct_citation": {
    "[CITATION_1]": "1160894",
    "[CITATION_2]": "10271242"
  },
  "bib_entries": {
    "1160894": {
      "title": "Regional CO pollution and export in China simulated by the high-resolution nested-grid GEOS-chem model",
      "abstract": "Abstract. An updated version of the nested-grid GEOS-Chem model is developed allowing for higher horizontal (0.5\u00b0\u00d70.667\u00b0) resolution as compared to global models. CO transport over a heavily polluted region, the Beijing-Tianjin-Hebei (BTH) city cluster in China, and the pattern of outflow from East China in summertime are investigated. Comparison of the nested-grid with global models indicates that the fine-resolution nested-grid model is capable of resolving individual cities with high associated emission intensities. The nested-grid model indicates the presence of a high CO column density over the Sichuan Basin in summer, attributable to the low-level stationary vortex associated with the Basin's topographical features. The nested-grid model provides good agreement also with measurements from a suburban monitoring site in Beijing during summer 2005. Tagged CO simulation results suggest that regional emissions make significant contributions to elevated CO levels over Beijing on polluted days and that the southeastward moving cyclones bringing northwest winds to Beijing are the key meteorological mechanisms responsible for dispersion of pollution over Beijing in summer. Overall CO fluxes to the NW Pacific from Asia are found to decrease by a factor of 3\u20134 from spring to summer. Much of the seasonal change is driven by decreasing fluxes from India and Southeast Asia in summer, while fluxes from East China are only 30% lower in summer than in spring. Compared to spring, summertime outflow from Chinese source regions is strongest at higher latitudes (north of 35\u00b0 N). The deeper convection in summer transporting CO to higher altitudes where export is more efficient is largely responsible for enhanced export in summer."
    },
    "10271242": {
      "title": "A nested grid formulation for chemical transport over Asia: applications to CO",
      "abstract": "[1] A global three-dimensional chemical transport model (GEOS-CHEM) was modified to permit treatment of a limited spatial regime with resolution higher than that adopted for the global background. Identified as a one-way nested grid formulation, the model was applied to a simulation of CO over Asia during spring 2001. Differences between results obtained using the nested grid (resolution 1\u00b0 \u00d7 1\u00b0), the coarse global model (resolution 4\u00b0 \u00d7 5\u00b0), and the intermediate global model (resolution 2\u00b0 \u00d7 2.5\u00b0) are discussed. The higher-resolution model allows for more efficient, advection-related, ventilation of the lower atmosphere, reflecting the significance of localized regions of intense upward motion not resolved in a coarser-resolution simulation. Budget analysis suggests that upward transfer to higher altitudes through large-scale advection provides the major sink for CO below 4 km. Horizontal advection, mainly through the north boundary, contributes a net source of CO to the window domain despite the polluted nature of the study region. The nested-grid model is shown to provide good agreement with measurements made during the Transport and Chemical Evolution over the Pacific (TRACE-P) campaign in spring 2001, notably better than the low-resolution model in simulating frontal lifting process and differences across the boundary separating the regions of cyclonic and anticyclonic flow. The high-resolution window approach also allows us to differentiate transport mechanisms for individual subregions of China on a much finer scale than was possible previously. Suggestions are made as to how to allow for subgrid vertical advective motions in the low-resolution model through a carefully designed and broadly tested eddy diffusion treatment."
    }
  }
}