{
  "text": "We compare the mean daytime GEOS-Chem surface ozone concentrations (scaled to 4 m height with varying land types) with observations from the Air Quality System (AQS) network (www.epa.gov/aqs) in the US during summer (JJA) 2010. We find 15 that the model is biased high by ~8 ppb on average. This high bias is consistent with previous studies (e.g., [CITATION_1] .",
  "citation_candidates": [
    "86811073",
    "56336908",
    "83477156",
    "34917026",
    "29965844",
    "84981635",
    "56399814",
    "18107125",
    "18279174",
    "85358441",
    "3286112",
    "21326544",
    "49419549",
    "364159",
    "4338400",
    "4705781",
    "154917113",
    "1706089",
    "55837679",
    "2626357"
  ],
  "bib_entries": {
    "18107125": {
      "title": "Ozone exposure causes a decoupling of conductance and photosynthesis: implications for the Ball-Berry stomatal conductance model",
      "abstract": "Industrialization has significantly altered atmospheric chemistry by increasing concentrations of chemicals such as nitrogen oxides (NO x ) and volatile organic carbon, which react in the presence of sunlight to produce tropospheric ozone (O3). Ozone is a powerful oxidant that causes both visual and physiological damage to plants, impairing the ability of the plant to control processes like photosynthesis and transpiration. Damage to photosynthesis and stomatal conductance does not always occur at the same rate, which generates a problem when using the Ball-Berry model to predict stomatal conductance because the calculations directly rely on photosynthesis rates. The goals of this work were to develop a modeling framework to modify Ball-Berry stomatal conductance predictions independently of photosynthesis and to test the framework using experimental data. After exposure to elevated O3 in open-top chambers, photosynthesis and stomatal conductance in tulip poplar changed at different rates through time. We were able to accurately model observed photosynthetic and stomatal conductance responses to chronic O3 exposure in a Ball-Berry framework by adjusting stomatal conductance in addition to photosynthesis. This led to a significant improvement in the modeled ability to predict both photosynthesis and stomatal conductance responses to O3."
    },
    "2626357": {
      "title": "Indirect radiative forcing of climate change through ozone effects on the land-carbon sink",
      "abstract": "The impact of projected changes in ozone levels on the land-carbon sink are estimated with the help of a global carbon cycle model, which accounts for interactions between ozone and carbon dioxide through stomatal closure. A significant suppression of the global land carbon sink as increases in ozone concentrations affect plant productivity is found. The resulting indirect radiative forcing by ozone effects on plants could contribute more to global warming than the direct radiative forcing."
    },
    "21326544": {
      "title": "How is ozone pollution reducing our food supply?",
      "abstract": "Ground-level ozone pollution is already decreasing global crop yields (from \u223c2.2-5.5% for maize to 3.9-15% and 8.5-14% for wheat and soybean, respectively), to differing extents depending on genotype and environmental conditions, and this problem is predicted to escalate given climate change and increasing ozone precursor emissions in many areas. Here a summary is provided of how ozone pollution affects yield in a variety of crops, thus impacting global food security. Ozone causes visible injury symptoms to foliage; it induces early senescence and abscission of leaves; it can reduce stomatal aperture and thereby carbon uptake, and/or directly reduce photosynthetic carbon fixation; it can moderate biomass growth via carbon availability or more directly; it can decrease translocation of fixed carbon to edible plant parts (grains, fruits, pods, roots) due either to reduced availability at source, redirection to synthesis of chemical protectants, or reduced transport capabilities via phloem; decreased carbon transport to roots reduces nutrient and water uptake and affects anchorage; ozone can moderate or bring forward flowering and induce pollen sterility; it induces ovule and/or grain abortion; and finally it reduces the ability of some genotypes to withstand other stresses such as drought, high vapour pressure deficit, and high photon flux density via effects on stomatal control. This latter point is emphasized here, given predictions that atmospheric conditions conducive to drought formation that also give rise to intense precursor emission events will become more severe over the coming decades."
    },
    "86811073": {
      "title": "Threat to future global food security from climate change and ozone air pollution",
      "abstract": "This study shows that climate change has the potential to substantially increase undernourishment rates and threaten food security in developing countries through crop damage, but that ozone regulation can significantly offset climate impacts, depending on the scenario. The findings should help policymakers devise optimal strategies for food production under global climate change."
    },
    "154917113": {
      "title": "The influence of aerosols on crop production: A study using the CERES crop model",
      "abstract": "Abstract The attenuation of solar radiation by atmospheric aerosols simultaneously decreases the amount of radiation reaching the surface and increases the fraction of radiation which is diffuse. Decreasing the total amount of photosynthetically active radiation (PAR, 400\u2013700 nm) tends to decrease the amount of photosynthesis occurring in plant leaves. Increasing the fraction of PAR which is diffuse allows more PAR to reach shaded leaves and can thus increase the total amount of photosynthesis occurring in a plant canopy. In an attempt to quantify these two radiative influences of aerosols, the CERES crop model [Cereal growth, development and yield. In: Tsuji, G.Y., Hoogenboom, G., Thornton, P.K. (Eds.), Understanding Options for Agricultural Production. Kluwer Academic Publishers, Dordrecht, Netherlands.] was modified to estimate the impact on yield for maize, wheat, and rice under varying atmospheric conditions. The influence of aerosols on total and diffuse PAR was modeled using the National Center for Atmospheric Research (NCAR) Tropospheric Ultraviolet Visible (TUV) radiation model [UV radiation in the natural and perturbed atmosphere. In: Tevini, M. (Ed.), Environmental Effects of UV (Ultraviolet) Radiation. Lewis Publisher, Boca Raton, Florida.] under both clear skies and overcast skies and again when cloudiness conditions were allowed to vary to reflect actual meteorological conditions. The PAR intensity and diffuse fraction results from the radiation model were applied to existing meteorological data sets. These data sets were then used as input for the CERES model. The CERES model was modified so that plant radiation use efficiency (RUE) fluctuated as a function of the diffuse fraction calculated by the TUV model. Model simulations were performed using many years of meteorological data and different amounts of atmospheric aerosol loading for several different locations around the world. The change in crop yield due to the influence of aerosols was found to be extremely dependent on the magnitude of the increase in radiation use efficiency (RUE) incurred by increasing the diffuse fraction. The influence of aerosols on simulated crop yield was found to be more negative on overcast days since the diffuse fraction is already quite high even in a clean atmosphere. Consequently, the more overcast days there are in a growing season, the more negative is the influence of aerosols. For the most realistic set of model results based on location-specific aerosol loadings and crop-specific assumptions of RUE change, the influence of aerosols is estimated to be \u221210% on maize yield, \u00b15% on wheat yield, and \u00b110% on rice yield except for when grown under exceptionally sunny conditions as found in California\u2019s central valley, in which case, yields are predicted to increase by up to 30%. Aerosols also tend to decrease plant water stress by reducing soil evaporation and transpiration. When crops are grown under rainfed conditions, this reduction in water loss from evapotranspiration may offset the decrease in the photosynthetic rate and cause aerosols to have a positive influence on final grain yields."
    },
    "85358441": {
      "title": "Variation in crop radiation-use efficiency with increased diffuse radiation",
      "abstract": "Radiation-use efficiency (RUE; grams of biomass accumulated, divided by total solar radiation intercepted) has proven to be a useful variable for quantifying biomass accumulation by crops. Experimental results and theoretical analysis indicate that differences in RUE exist among species, but that RUE for unstressed conditions is relatively stable within a species. A departure from the general conclusion is that high values of RUE have been reported for conditions where the diffuse proportion of the total radiation is commonly large (e.g., glasshouse-grown plants). In this paper, a simple theoretical derivation of RUE was examined to quantify potential responses in RUE to variation in the fraction of diffuse radiation. To simulate natural conditions, the absolute amount of incident diffuse radiation was held constant and the amount of the direct radiation component was varied so that both the fraction of diffuse radiation and total radiation were varied. The estimates of RUE for soybean [Glycine mar (L.) Merr.] and maize (Zea mays L.) increased as the fraction of diffuse radiation increased and the total radiation decreased. These results indicate that plants grown in glasshouses or in other locations with large fractions of diffuse radiation are likely to have greater radiation-use efficiency than observed under primarily direct radiation."
    },
    "84981635": {
      "title": "Instantaneous measurement of radiation and water use efficiencies of a maize crop",
      "abstract": "Field-scale measurement of CO 2 flux between vegetation and the atmosphere is a direct way to quantify short-term performance of an agricultural crop through the growing season. This study measured CO 2 and H 2 O exchange in a maize (Zea mays L.) field during a growing season, in order to (i) estimate crop net photosynthesis (P.) and canopy nighttime respiration and (ii) calculate crop radiation and water use efficiencies. Maize net photosynthesis was calculated for 850 h (day) and canopy respiration for 175 h (night) from measurements of CO 2 fluxes above the crop and estimates of CO 2 fluxes at the soil surface. Under high radiation, P n reached 2 mg m -2 S -1 at 30 d after emergence, remained between 2 and 2.5 mg m -2 s -1 for the next 30 d, and then slowly decreased until first frost. Two negative exponential equations were proposed to describe the relationship between P n and intercepted photosynthetically active radiation (IPAR) during the growing season: one from planting to maximum leaf area index (LAI max ) and one from LAI max to the first fall frost. These results confirmed that, in absence of water stress and with adequate fertilization, simple models based on IPAR could account for about 90% of the variation in P n . The higher efficiency of diffuse than of direct beam radiation was documented. Instantaneous radiation use efficiency (IRUE) was shown to decrease by 66% from cloudy to clear sky conditions, so it is desirable to incorporate IRUE for estimation of short-term (hourly) P n . Canopy respiration rates at night ranged from 0.1 to 0.2 mg m -2 s -1 for LAI between 1 and 3, or about 10% of daily photosynthesis. The relationship between P n and water vapor flux (F q,a ) was nonlinear, with slope decreasing with increasing F q,a . Water use efficiency at LAI max was 17 mg g -1 for F q,a = 0.05 g m -2 s -1 and about 10 mg g -1 for F q,a = 0.20 g m -2 s -1 . Direct evaporation of water from the soil surface (at low LAI) or from wet plant parts resulted in considerable noise in the P n - F q,a relationship. The normalization of F q,a by the vapor pressure deficit (VPD) linearized the relationship. The slope of the P n - F q,a /VPD curve was larger for cloudy tban for clear sky conditions, probably as a result of the larger RUE under diffuse radiation."
    },
    "49419549": {
      "title": "The effect of atmospheric aerosol particles and clouds on net ecosystem exchange in the Amazon",
      "abstract": "Abstract. Carbon cycling in the Amazon is closely linked to atmospheric processes and climate in the region as a consequence of the strong coupling between the atmosphere and biosphere. This work examines the effects of changes in net radiation due to atmospheric aerosol particles and clouds on the net ecosystem exchange (NEE) of CO2 in the Amazon region. Some of the major environmental factors affecting the photosynthetic activity of plants, such as air temperature and relative humidity, were also examined. An algorithm for clear-sky irradiance was developed and used to determine the relative irradiance, f, which quantifies the percentage of solar radiation absorbed and scattered due to atmospheric aerosol particles and clouds. Aerosol optical depth (AOD) was calculated from irradiances measured with the MODIS (Moderate Resolution Imaging Spectroradiometer) sensor, onboard the Terra and Aqua satellites, and was validated with ground-based AOD measurements from AERONET (Aerosol Robotic Network) sun photometers. Carbon fluxes were measured using eddy covariance technique at the Large-Scale Biosphere-Atmosphere Experiment in Amazonia (LBA) flux towers. Two sites were studied: the Jaru Biological Reserve (RBJ), located in Rondonia, and the Cuieiras Biological Reserve at the K34 LBA tower (located in a preserved region in the central Amazon). Analysis was performed continuously from 1999 to 2009 at K34 and from 1999 to 2002 at RBJ, and includes wet, dry and transition seasons. In the Jaru Biological Reserve, a 29% increase in carbon uptake (NEE) was observed when the AOD ranged from 0.10 to 1.5 at 550 nm. In the Cuieiras Biological Reserve, the aerosol effect on NEE was smaller, accounting for an approximate 20% increase in NEE. High aerosol loading (AOD above 3 at 550 nm) or high cloud cover leads to reductions in solar flux and strong decreases in photosynthesis up to the point where NEE approaches zero. The observed increase in NEE is attributed to an enhancement (~50%) in the diffuse fraction of photosynthetic active radiation (PAR). The enhancement in diffuse PAR can be done through increases in aerosols and/or clouds. In the present study, it was not possible to separate these two components. Significant changes in air temperature and relative humidity resulting from changes in solar radiation fluxes under high aerosol loading were also observed at both sites. Considering the long-range transport of aerosols in the Amazon, the observed changes in NEE for these two sites may occur over large areas in the Amazon, significantly altering the carbon balance in the largest rainforest in the world."
    },
    "4338400": {
      "title": "Impact of changes in diffuse radiation on the global land carbon sink",
      "abstract": "Plant photosynthesis tends to increase with irradiance. However, recent theoretical and observational studies have demonstrated that photosynthesis is also more efficient under diffuse light conditions. Changes in cloud cover or atmospheric aerosol loadings, arising from either volcanic or anthropogenic emissions, alter both the total photosynthetically active radiation reaching the surface and the fraction of this radiation that is diffuse, with uncertain overall effects on global plant productivity and the land carbon sink. Here we estimate the impact of variations in diffuse fraction on the land carbon sink using a global model modified to account for the effects of variations in both direct and diffuse radiation on canopy photosynthesis. We estimate that variations in diffuse fraction, associated largely with the 'global dimming' period, enhanced the land carbon sink by approximately one-quarter between 1960 and 1999. However, under a climate mitigation scenario for the twenty-first century in which sulphate aerosols decline before atmospheric CO(2) is stabilized, this 'diffuse-radiation' fertilization effect declines rapidly to near zero by the end of the twenty-first century."
    },
    "56336908": {
      "title": "Potential sensitivity of photosynthesis and isoprene emission to direct radiative effects of atmospheric aerosol pollution",
      "abstract": "Abstract. A global Earth system model is applied to quantify the impacts of direct anthropogenic aerosol effective radiative forcing on gross primary productivity (GPP) and isoprene emission. The impacts of different pollution aerosol sources (anthropogenic, biomass burning, and non-biomass burning) are investigated by performing sensitivity experiments. The model framework includes all known light and meteorological responses of photosynthesis, but uses fixed canopy structures and phenology. On a global scale, our results show that global land carbon fluxes (GPP and isoprene emission) are not sensitive to pollution aerosols, even under a global decline in surface solar radiation (direct + diffuse) by \u223c 9 %. At a regional scale, GPP and isoprene emission show a robust but opposite sensitivity to pollution aerosols in regions where forested canopies dominate. In eastern North America and Eurasia, anthropogenic pollution aerosols (mainly from non-biomass burning sources) enhance GPP by +5\u20138 % on an annual average. In the northwestern Amazon Basin and central Africa, biomass burning aerosols increase GPP by +2\u20135 % on an annual average, with a peak in the northwestern Amazon Basin during the dry-fire season (+5\u20138 %). The prevailing mechanism varies across regions: light scattering dominates in eastern North America, while a reduction in direct radiation dominates in Europe and China. Aerosol-induced GPP productivity increases in the Amazon and central Africa include an additional positive feedback from reduced canopy temperatures in response to increases in canopy conductance. In Eurasia and northeastern China, anthropogenic pollution aerosols drive a decrease in isoprene emission of \u22122 to \u221212 % on an annual average. Future research needs to incorporate the indirect effects of aerosols and possible feedbacks from dynamic carbon allocation and phenology."
    },
    "55837679": {
      "title": "Ozone and haze pollution weakens net primary productivity in China",
      "abstract": "Abstract. Atmospheric pollutants have both beneficial and detrimental effects on carbon uptake by land ecosystems. Surface ozone (O3) damages leaf photosynthesis by oxidizing plant cells, while aerosols promote carbon uptake by increasing diffuse radiation and exert additional influences through concomitant perturbations to meteorology and hydrology. China is currently the world's largest emitter of both carbon dioxide and short-lived air pollutants. The land ecosystems of China are estimated to provide a carbon sink, but it remains unclear whether air pollution acts to inhibit or promote carbon uptake. Here, we employ Earth system modeling and multiple measurement datasets to assess the separate and combined effects of anthropogenic O3 and aerosol pollution on net primary productivity (NPP) in China. In the present day, O3 reduces annual NPP by 0.6 Pg C (14 %) with a range from 0.4 Pg C (low O3 sensitivity) to 0.8 Pg C (high O3 sensitivity). In contrast, aerosol direct effects increase NPP by 0.2 Pg C (5 %) through the combination of diffuse radiation fertilization, reduced canopy temperatures, and reduced evaporation leading to higher soil moisture. Consequently, the net effects of O3 and aerosols decrease NPP by 0.4 Pg C (9 %) with a range from 0.2 Pg C (low O3 sensitivity) to 0.6 Pg C (high O3 sensitivity). However, precipitation inhibition from combined aerosol direct and indirect effects reduces annual NPP by 0.2 Pg C (4 %), leading to a net air pollution suppression of 0.8 Pg C (16 %) with a range from 0.6 Pg C (low O3 sensitivity) to 1.0 Pg C (high O3 sensitivity). Our results reveal strong dampening effects of air pollution on the land carbon uptake in China today. Following the current legislation emission scenario, this suppression will be further increased by the year 2030, mainly due to a continuing increase in surface O3. However, the maximum technically feasible reduction scenario could drastically relieve the current level of NPP damage by 70 % in 2030, offering protection of this critical ecosystem service and the mitigation of long-term global warming."
    },
    "3286112": {
      "title": "Ozone vegetation damage effects on gross primary productivity in the United States",
      "abstract": "Abstract. We apply an off-line process-based vegetation model (the Yale Interactive Terrestrial Biosphere model) to assess the impacts of ozone (O3) vegetation damage on gross primary productivity (GPP) in the United States during the past decade (1998\u20132007). The model's GPP simulation is evaluated at 40 sites of the North American Carbon Program (NACP) synthesis. The ecosystem-scale model version reproduces interannual variability and seasonality of GPP at most sites, especially in croplands. Inclusion of the O3 damage impact decreases biases of simulated GPP at most of the NACP sites. The simulation with the O3 damage effect reproduces 64% of the observed variance in summer GPP and 42% on the annual average. Based on a regional gridded simulation over the US, summertime average O3-free GPP is 6.1 g C m\u22122 day\u22121 (9.5 g C m\u22122 day\u22121 in the east of 95\u00b0 W and 3.9 g C m\u22122 day\u22121 in the west). O3 damage decreases GPP by 4\u20138% on average in the eastern US and leads to significant decreases of 11\u201317% in east coast hot spots. Sensitivity simulations show that a 25% decrease in surface O3 concentration halves the average GPP damage to only 2\u20134%, suggesting the substantial co-benefits to ecosystem health that may be achieved via O3 air pollution control."
    },
    "18279174": {
      "title": "Radiative forcing by longlived greenhouse gases: Calculations with the AER radiative transfer models",
      "abstract": "A primary component of the observed, recent climate change is the radiative forcing from increased concentrations of long-lived greenhouse gases (LLGHGs). Effective simulation of anthropogenic climate change by general circulation models (GCMs) is strongly dependent on the accurate representation of radiative processes associated with water vapor, ozone and LLGHGs. In the context of the increasing application of the Atmospheric and Environmental Research, Inc. (AER) radiation models within the GCM community, their capability to calculate longwave and shortwave radiative forcing for clear sky scenarios previously examined by the radiative transfer model intercomparison project (RTMIP) is presented. Forcing calculations with the AER line-by-line (LBL) models are very consistent with the RTMIP line-by-line results in the longwave and shortwave. The AER broadband models, in all but one case, calculate longwave forcings within a range of -0.20 to 0.23 W m{sup -2} of LBL calculations and shortwave forcings within a range of -0.16 to 0.38 W m{sup -2} of LBL results. These models also perform well at the surface, which RTMIP identified as a level at which GCM radiation models have particular difficulty reproducing LBL fluxes. Heating profile perturbations calculated by the broadband models generally reproduce high-resolution calculations within a few hundredths K d{sup -1} in the troposphere and within 0.15 K d{sup -1} in the peak stratospheric heating near 1 hPa. In most cases, the AER broadband models provide radiative forcing results that are in closer agreement with high 20 resolution calculations than the GCM radiation codes examined by RTMIP, which supports the application of the AER models to climate change research."
    },
    "364159": {
      "title": "Contrasting the direct radiative effect and direct radiative forcing of aerosols",
      "abstract": "Abstract. The direct radiative effect (DRE) of aerosols, which is the instantaneous radiative impact of all atmospheric particles on the Earth's energy balance, is sometimes confused with the direct radiative forcing (DRF), which is the change in DRE from pre-industrial to present-day (not including climate feedbacks). In this study we couple a global chemical transport model (GEOS-Chem) with a radiative transfer model (RRTMG) to contrast these concepts. We estimate a global mean all-sky aerosol DRF of \u22120.36 Wm\u22122 and a DRE of \u22121.83 Wm\u22122 for 2010. Therefore, natural sources of aerosol (here including fire) affect the global energy balance over four times more than do present-day anthropogenic aerosols. If global anthropogenic emissions of aerosols and their precursors continue to decline as projected in recent scenarios due to effective pollution emission controls, the DRF will shrink (\u22120.22 Wm\u22122 for 2100). Secondary metrics, like DRE, that quantify temporal changes in both natural and anthropogenic aerosol burdens are therefore needed to quantify the total effect of aerosols on climate."
    },
    "4705781": {
      "title": "Why do models overestimate surface ozone in the Southeast United States?",
      "abstract": "Ozone pollution in the Southeast US involves complex chemistry driven by emissions of anthropogenic nitrogen oxide radicals (NOx \u2261 NO + NO2) and biogenic isoprene. Model estimates of surface ozone concentrations tend to be biased high in the region and this is of concern for designing effective emission control strategies to meet air quality standards. We use detailed chemical observations from the SEAC4RS aircraft campaign in August and September 2013, interpreted with the GEOS-Chem chemical transport model at 0.25\u00b0\u00d70.3125\u00b0 horizontal resolution, to better understand the factors controlling surface ozone in the Southeast US. We find that the National Emission Inventory (NEI) for NOx from the US Environmental Protection Agency (EPA) is too high. This finding is based on SEAC4RS observations of NOx and its oxidation products, surface network observations of nitrate wet deposition fluxes, and OMI satellite observations of tropospheric NO2 columns. Our results indicate that NEI NOx emissions from mobile and industrial sources must be reduced by 30-60%, dependent on the assumption of the contribution by soil NOx emissions. Upper tropospheric NO2 from lightning makes a large contribution to satellite observations of tropospheric NO2 that must be accounted for when using these data to estimate surface NOx emissions. We find that only half of isoprene oxidation proceeds by the high-NOx pathway to produce ozone; this fraction is only moderately sensitive to changes in NOx emissions because isoprene and NOx emissions are spatially segregated. GEOS-Chem with reduced NOx emissions provides an unbiased simulation of ozone observations from the aircraft, and reproduces the observed ozone production efficiency in the boundary layer as derived from a regression of ozone and NOx oxidation products. However, the model is still biased high by 8\u00b113 ppb relative to observed surface ozone in the Southeast US. Ozonesondes launched during midday hours show a 7 ppb ozone decrease from 1.5 km to the surface that GEOS-Chem does not capture. This bias may reflect a combination of excessive vertical mixing and net ozone production in the model boundary layer."
    },
    "29965844": {
      "title": "Crop planting dates: an analysis of global patterns",
      "abstract": "Aim To assemble a data set of global crop planting and harvesting dates for 19 major crops, explore spatial relationships between planting date and climate for two of them, and compare our analysis with a review of the literature on factors that drive decisions on planting dates. ::: ::: Location Global. ::: ::: Methods We digitized and georeferenced existing data on crop planting and harvesting dates from six sources. We then examined relationships between planting dates and temperature, precipitation and potential evapotranspiration using 30-year average climatologies from the Climatic Research Unit, University of East Anglia (CRU CL 2.0). ::: ::: Results We present global planting date patterns for maize, spring wheat and winter wheat (our full, publicly available data set contains planting and harvesting dates for 19 major crops). Maize planting in the northern mid-latitudes generally occurs in April and May. Daily average air temperatures are usually c. 12\u201317 \u00b0C at the time of maize planting in these regions, although soil moisture often determines planting date more directly than does temperature. Maize planting dates vary more widely in tropical regions. Spring wheat is usually planted at cooler temperatures than maize, between c. 8 and 14 \u00b0C in temperate regions. Winter wheat is generally planted in September and October in the northern mid-latitudes. ::: ::: Main conclusions In temperate regions, spatial patterns of maize and spring wheat planting dates can be predicted reasonably well by assuming a fixed temperature at planting. However, planting dates in lower latitudes and planting dates of winter wheat are more difficult to predict from climate alone. In part this is because planting dates may be chosen to ensure a favourable climate during a critical growth stage, such as flowering, rather than to ensure an optimal climate early in the crop's growth. The lack of predictability is also due to the pervasive influence of technological and socio-economic factors on planting dates."
    },
    "34917026": {
      "title": "The parallel 15 system for integrating impact models and sectors (pSIMS)",
      "abstract": "We present a framework for massively parallel climate impact simulations: the parallel System for Integrating Impact Models and Sectors (pSIMS). This framework comprises a) tools for ingesting and converting large amounts of data to a versatile datatype based on a common geospatial grid; b) tools for translating this datatype into custom formats for site-based models; c) a scalable parallel framework for performing large ensemble simulations, using any one of a number of different impacts models, on clusters, supercomputers, distributed grids, or clouds; d) tools and data standards for reformatting outputs to common datatypes for analysis and visualization; and e) methodologies for aggregating these datatypes to arbitrary spatial scales such as administrative and environmental demarcations. By automating many time-consuming and error-prone aspects of large-scale climate impacts studies, pSIMS accelerates computational research, encourages model intercomparison, and enhances reproducibility of simulation results. We present the pSIMS design and use example assessments to demonstrate its multi-model, multi-scale, and multi-sector versatility. Open-source framework for efficient massively parallel climate impact simulations.Enables analysis of dozens of crop and tree species with DSSAT, APSIM, and CenW.Multi-model multi-scale assessment of maize yield in Africa using DSSAT and APSIM.High-resolution climate impact assessment of New Zealand forest productivity.Computational scaling behavior of the framework to assess the efficiency gain attained."
    },
    "83477156": {
      "title": "Climate, health, agricultural and economic impacts of tighter vehicle-emission standards",
      "abstract": "Vehicle-emission standards for non-carbon-dioxide pollutants have recognized benefits for air quality. An interdisciplinary analysis now shows that adopting tight on-road emission standards for these pollutants would also mitigate short-term climate change and provide large benefits for human health and food security in a number of developing countries."
    },
    "56399814": {
      "title": "The global impact of ozone on agricultural crop yields under current and future air quality legislation",
      "abstract": "In this paper we evaluate the global impact of surface ozone on four types of agricultural crop. The study is based on modelled global hourly ozone fields for the year 2000 and 2030, using the global 1 \ufffd \ufffd 1\ufffd"
    },
    "1706089": {
      "title": "RCP 8.5-A scenario of comparatively high greenhouse gas emissions",
      "abstract": "This paper summarizes the main characteristics of the RCP8.5 scenario. The RCP8.5 combines assumptions about high population and relatively slow income growth with modest rates of technological change and energy intensity improvements, leading in the long term to high energy demand and GHG emissions in absence of climate change policies. Compared to the total set of Representative Concentration Pathways (RCPs), RCP8.5 thus corresponds to the pathway with the highest greenhouse gas emissions. Using the IIASA Integrated Assessment Framework and the MESSAGE model for the development of the RCP8.5, we focus in this paper on two important extensions compared to earlier scenarios: 1) the development of spatially explicit air pollution projections, and 2) enhancements in the land-use and land-cover change projections. In addition, we explore scenario variants that use RCP8.5 as a baseline, and assume different degrees of greenhouse gas mitigation policies to reduce radiative forcing. Based on our modeling framework, we find it technically possible to limit forcing from RCP8.5 to lower levels comparable to the other RCPs (2.6 to 6 W/m2). Our scenario analysis further indicates that climate policy-induced changes of global energy supply and demand may lead to significant co-benefits for other policy priorities, such as local air pollution."
    }
  }
}