{
  "doc_id": "41068",
  "text": "Previous work has shown that bulk cloud models tend to underestimate sulfate formed via the O 3 pathway by underestimating pH and thus underestimating the fraction of S(IV) that is in the form of !\" ! !! . [CITATION_1] developed a parameterization to correct for the underestimate in cloud pH by comparing a bulk cloud model with a cloud model that resolves the heterogeneity in cloud chemistry. The uncertainty in this parameterization, and thus the degree to which it might result in an overestimate of the contribution of O 3 to in-cloud sulfate formation in GEOS-Chem is difficult to assess.",
  "correct_citation": {
    "[CITATION_1]": "98429315"
  },
  "citation_spans": [
    {
      "citation_id": "[CITATION_1]",
      "span_text": "Previous work has shown that bulk cloud models tend to underestimate sulfate formed via the O 3 pathway by underestimating pH and thus underestimating the fraction of S(IV) that is in the form of !\" ! !! . [CITATION_1] developed a parameterization to correct for the underestimate in cloud pH by comparing a bulk cloud model with a cloud model that resolves the heterogeneity in cloud chemistry.",
      "s_span": 0,
      "e_span": 395
    }
  ],
  "bib_entries": {
    "98429315": {
      "title": "Paramerization of heterogeneous droplet chemistry for use in bulk (($! cloud models",
      "abstract": "Abstract Comparison of in-cloud sulfate production by a bulk-parameterized cloud model, a modified bulk parameterized model, and an explicit microphysical model for a wide variety of scenarios has been used as the basis for deriving a parameterization of the effects of heterogeneous cloud chemistry on in-cloud sulfate production. The parameterization, essentially a transfer function relating bulk and explicit model predictions, can be easily employed in large-scale Eulerian cloud models and has been demonstrated to have significant impact on predictions of sulfate deposition."
    }
  },
  "generator": "fallback_v4"
}