{
  "style": "APA",
  "texts": [
    "GPU-Level Simulators.",
    "At the hardware level, GPU simulators enable cycle-accurate modeling of GPU architectures for diverse workloads.",
    "GPGPU-Sim (Bakhoda et al., 2009) offers detailed simulation of modern NVIDIA GPUs executing CUDA applications, with support for Tensor Cores, dynamic parallelism, and integrated energy estimation via GPUWattch.",
    "Building upon this foundation, Accel-Sim (Khairy et al., 2020) extends the framework with an extensible, trace-driven design that directly consumes native SASS instructions, substantially reducing the effort needed to model new GPU architectures while preserving validation accuracy within 20% of real hardware measurements.",
    "Inference Simulators."
  ],
  "correct_citations": [
    "GPGPU-Sim (Bakhoda et al., 2009) offers detailed simulation of modern NVIDIA GPUs executing CUDA applications, with support for Tensor Cores, dynamic parallelism, and integrated energy estimation via GPUWattch.",
    "Building upon this foundation, Accel-Sim (Khairy et al., 2020) extends the framework with an extensible, trace-driven design that directly consumes native SASS instructions, substantially reducing the effort needed to model new GPU architectures while preserving validation accuracy within 20% of real hardware measurements."
  ]
}